# generated using pymatgen
data_CuH2(C3O2)2
_symmetry_space_group_name_H-M   'P 1'
_cell_length_a   26.34300000
_cell_length_b   26.34300000
_cell_length_c   26.34300000
_cell_angle_alpha   90.00000000
_cell_angle_beta   90.00000000
_cell_angle_gamma   90.00000000
_symmetry_Int_Tables_number   1
_chemical_formula_structural   CuH2(C3O2)2
_chemical_formula_sum   'Cu48 H96 C288 O192'
_cell_volume   18280.82097561
_cell_formula_units_Z   48
loop_
 _symmetry_equiv_pos_site_id
 _symmetry_equiv_pos_as_xyz
  1  'x, y, z'
loop_
 _atom_site_type_symbol
 _atom_site_label
 _atom_site_symmetry_multiplicity
 _atom_site_fract_x
 _atom_site_fract_y
 _atom_site_fract_z
 _atom_site_occupancy
  Cu  Cu1  1  0.28530000  0.28530000  0.00000000  1.0
  Cu  Cu2  1  0.71470000  0.71470000  0.00000000  1.0
  Cu  Cu3  1  0.71470000  0.28530000  0.00000000  1.0
  Cu  Cu4  1  0.28530000  0.71470000  0.00000000  1.0
  Cu  Cu5  1  0.00000000  0.28530000  0.28530000  1.0
  Cu  Cu6  1  0.00000000  0.71470000  0.71470000  1.0
  Cu  Cu7  1  0.00000000  0.71470000  0.28530000  1.0
  Cu  Cu8  1  0.00000000  0.28530000  0.71470000  1.0
  Cu  Cu9  1  0.28530000  0.00000000  0.28530000  1.0
  Cu  Cu10  1  0.71470000  0.00000000  0.71470000  1.0
  Cu  Cu11  1  0.28530000  0.00000000  0.71470000  1.0
  Cu  Cu12  1  0.71470000  0.00000000  0.28530000  1.0
  Cu  Cu13  1  0.28530000  0.78530000  0.50000000  1.0
  Cu  Cu14  1  0.71470000  0.21470000  0.50000000  1.0
  Cu  Cu15  1  0.71470000  0.78530000  0.50000000  1.0
  Cu  Cu16  1  0.28530000  0.21470000  0.50000000  1.0
  Cu  Cu17  1  0.00000000  0.78530000  0.78530000  1.0
  Cu  Cu18  1  0.00000000  0.21470000  0.21470000  1.0
  Cu  Cu19  1  0.00000000  0.21470000  0.78530000  1.0
  Cu  Cu20  1  0.00000000  0.78530000  0.21470000  1.0
  Cu  Cu21  1  0.28530000  0.50000000  0.78530000  1.0
  Cu  Cu22  1  0.71470000  0.50000000  0.21470000  1.0
  Cu  Cu23  1  0.28530000  0.50000000  0.21470000  1.0
  Cu  Cu24  1  0.71470000  0.50000000  0.78530000  1.0
  Cu  Cu25  1  0.78530000  0.28530000  0.50000000  1.0
  Cu  Cu26  1  0.21470000  0.71470000  0.50000000  1.0
  Cu  Cu27  1  0.21470000  0.28530000  0.50000000  1.0
  Cu  Cu28  1  0.78530000  0.71470000  0.50000000  1.0
  Cu  Cu29  1  0.50000000  0.28530000  0.78530000  1.0
  Cu  Cu30  1  0.50000000  0.71470000  0.21470000  1.0
  Cu  Cu31  1  0.50000000  0.71470000  0.78530000  1.0
  Cu  Cu32  1  0.50000000  0.28530000  0.21470000  1.0
  Cu  Cu33  1  0.78530000  0.00000000  0.78530000  1.0
  Cu  Cu34  1  0.21470000  0.00000000  0.21470000  1.0
  Cu  Cu35  1  0.78530000  0.00000000  0.21470000  1.0
  Cu  Cu36  1  0.21470000  0.00000000  0.78530000  1.0
  Cu  Cu37  1  0.78530000  0.78530000  0.00000000  1.0
  Cu  Cu38  1  0.21470000  0.21470000  0.00000000  1.0
  Cu  Cu39  1  0.21470000  0.78530000  0.00000000  1.0
  Cu  Cu40  1  0.78530000  0.21470000  0.00000000  1.0
  Cu  Cu41  1  0.50000000  0.78530000  0.28530000  1.0
  Cu  Cu42  1  0.50000000  0.21470000  0.71470000  1.0
  Cu  Cu43  1  0.50000000  0.21470000  0.28530000  1.0
  Cu  Cu44  1  0.50000000  0.78530000  0.71470000  1.0
  Cu  Cu45  1  0.78530000  0.50000000  0.28530000  1.0
  Cu  Cu46  1  0.21470000  0.50000000  0.71470000  1.0
  Cu  Cu47  1  0.78530000  0.50000000  0.71470000  1.0
  Cu  Cu48  1  0.21470000  0.50000000  0.28530000  1.0
  H  H1  1  0.38020000  0.22800000  0.88020000  1.0
  H  H2  1  0.61980000  0.77200000  0.88020000  1.0
  H  H3  1  0.61980000  0.22800000  0.11980000  1.0
  H  H4  1  0.38020000  0.77200000  0.11980000  1.0
  H  H5  1  0.88020000  0.38020000  0.22800000  1.0
  H  H6  1  0.88020000  0.61980000  0.77200000  1.0
  H  H7  1  0.11980000  0.61980000  0.22800000  1.0
  H  H8  1  0.11980000  0.38020000  0.77200000  1.0
  H  H9  1  0.22800000  0.88020000  0.38020000  1.0
  H  H10  1  0.77200000  0.88020000  0.61980000  1.0
  H  H11  1  0.22800000  0.11980000  0.61980000  1.0
  H  H12  1  0.77200000  0.11980000  0.38020000  1.0
  H  H13  1  0.22800000  0.38020000  0.11980000  1.0
  H  H14  1  0.77200000  0.61980000  0.11980000  1.0
  H  H15  1  0.22800000  0.61980000  0.88020000  1.0
  H  H16  1  0.77200000  0.38020000  0.88020000  1.0
  H  H17  1  0.38020000  0.88020000  0.77200000  1.0
  H  H18  1  0.61980000  0.88020000  0.22800000  1.0
  H  H19  1  0.61980000  0.11980000  0.77200000  1.0
  H  H20  1  0.38020000  0.11980000  0.22800000  1.0
  H  H21  1  0.88020000  0.22800000  0.61980000  1.0
  H  H22  1  0.88020000  0.77200000  0.38020000  1.0
  H  H23  1  0.11980000  0.22800000  0.38020000  1.0
  H  H24  1  0.11980000  0.77200000  0.61980000  1.0
  H  H25  1  0.61980000  0.77200000  0.11980000  1.0
  H  H26  1  0.38020000  0.22800000  0.11980000  1.0
  H  H27  1  0.38020000  0.77200000  0.88020000  1.0
  H  H28  1  0.61980000  0.22800000  0.88020000  1.0
  H  H29  1  0.11980000  0.61980000  0.77200000  1.0
  H  H30  1  0.11980000  0.38020000  0.22800000  1.0
  H  H31  1  0.88020000  0.38020000  0.77200000  1.0
  H  H32  1  0.88020000  0.61980000  0.22800000  1.0
  H  H33  1  0.77200000  0.11980000  0.61980000  1.0
  H  H34  1  0.22800000  0.11980000  0.38020000  1.0
  H  H35  1  0.77200000  0.88020000  0.38020000  1.0
  H  H36  1  0.22800000  0.88020000  0.61980000  1.0
  H  H37  1  0.77200000  0.61980000  0.88020000  1.0
  H  H38  1  0.22800000  0.38020000  0.88020000  1.0
  H  H39  1  0.77200000  0.38020000  0.11980000  1.0
  H  H40  1  0.22800000  0.61980000  0.11980000  1.0
  H  H41  1  0.61980000  0.11980000  0.22800000  1.0
  H  H42  1  0.38020000  0.11980000  0.77200000  1.0
  H  H43  1  0.38020000  0.88020000  0.22800000  1.0
  H  H44  1  0.61980000  0.88020000  0.77200000  1.0
  H  H45  1  0.11980000  0.77200000  0.38020000  1.0
  H  H46  1  0.11980000  0.22800000  0.61980000  1.0
  H  H47  1  0.88020000  0.77200000  0.61980000  1.0
  H  H48  1  0.88020000  0.22800000  0.38020000  1.0
  H  H49  1  0.38020000  0.72800000  0.38020000  1.0
  H  H50  1  0.61980000  0.27200000  0.38020000  1.0
  H  H51  1  0.61980000  0.72800000  0.61980000  1.0
  H  H52  1  0.38020000  0.27200000  0.61980000  1.0
  H  H53  1  0.88020000  0.88020000  0.72800000  1.0
  H  H54  1  0.88020000  0.11980000  0.27200000  1.0
  H  H55  1  0.11980000  0.11980000  0.72800000  1.0
  H  H56  1  0.11980000  0.88020000  0.27200000  1.0
  H  H57  1  0.38020000  0.38020000  0.27200000  1.0
  H  H58  1  0.61980000  0.38020000  0.72800000  1.0
  H  H59  1  0.61980000  0.61980000  0.27200000  1.0
  H  H60  1  0.38020000  0.61980000  0.72800000  1.0
  H  H61  1  0.88020000  0.72800000  0.11980000  1.0
  H  H62  1  0.88020000  0.27200000  0.88020000  1.0
  H  H63  1  0.11980000  0.72800000  0.88020000  1.0
  H  H64  1  0.11980000  0.27200000  0.11980000  1.0
  H  H65  1  0.61980000  0.27200000  0.61980000  1.0
  H  H66  1  0.38020000  0.72800000  0.61980000  1.0
  H  H67  1  0.38020000  0.27200000  0.38020000  1.0
  H  H68  1  0.61980000  0.72800000  0.38020000  1.0
  H  H69  1  0.11980000  0.11980000  0.27200000  1.0
  H  H70  1  0.11980000  0.88020000  0.72800000  1.0
  H  H71  1  0.88020000  0.88020000  0.27200000  1.0
  H  H72  1  0.88020000  0.11980000  0.72800000  1.0
  H  H73  1  0.61980000  0.61980000  0.72800000  1.0
  H  H74  1  0.38020000  0.61980000  0.27200000  1.0
  H  H75  1  0.38020000  0.38020000  0.72800000  1.0
  H  H76  1  0.61980000  0.38020000  0.27200000  1.0
  H  H77  1  0.11980000  0.27200000  0.88020000  1.0
  H  H78  1  0.11980000  0.72800000  0.11980000  1.0
  H  H79  1  0.88020000  0.27200000  0.11980000  1.0
  H  H80  1  0.88020000  0.72800000  0.88020000  1.0
  H  H81  1  0.72800000  0.88020000  0.88020000  1.0
  H  H82  1  0.27200000  0.88020000  0.11980000  1.0
  H  H83  1  0.72800000  0.11980000  0.11980000  1.0
  H  H84  1  0.27200000  0.11980000  0.88020000  1.0
  H  H85  1  0.72800000  0.38020000  0.61980000  1.0
  H  H86  1  0.27200000  0.61980000  0.61980000  1.0
  H  H87  1  0.72800000  0.61980000  0.38020000  1.0
  H  H88  1  0.27200000  0.38020000  0.38020000  1.0
  H  H89  1  0.27200000  0.11980000  0.11980000  1.0
  H  H90  1  0.72800000  0.11980000  0.88020000  1.0
  H  H91  1  0.27200000  0.88020000  0.88020000  1.0
  H  H92  1  0.72800000  0.88020000  0.11980000  1.0
  H  H93  1  0.27200000  0.61980000  0.38020000  1.0
  H  H94  1  0.72800000  0.38020000  0.38020000  1.0
  H  H95  1  0.27200000  0.38020000  0.61980000  1.0
  H  H96  1  0.72800000  0.61980000  0.61980000  1.0
  C  C1  1  0.29680000  0.20320000  0.93130000  1.0
  C  C2  1  0.70320000  0.79680000  0.93130000  1.0
  C  C3  1  0.70320000  0.20320000  0.06870000  1.0
  C  C4  1  0.29680000  0.79680000  0.06870000  1.0
  C  C5  1  0.93130000  0.29680000  0.20320000  1.0
  C  C6  1  0.93130000  0.70320000  0.79680000  1.0
  C  C7  1  0.06870000  0.70320000  0.20320000  1.0
  C  C8  1  0.06870000  0.29680000  0.79680000  1.0
  C  C9  1  0.20320000  0.93130000  0.29680000  1.0
  C  C10  1  0.79680000  0.93130000  0.70320000  1.0
  C  C11  1  0.20320000  0.06870000  0.70320000  1.0
  C  C12  1  0.79680000  0.06870000  0.29680000  1.0
  C  C13  1  0.20320000  0.29680000  0.06870000  1.0
  C  C14  1  0.79680000  0.70320000  0.06870000  1.0
  C  C15  1  0.20320000  0.70320000  0.93130000  1.0
  C  C16  1  0.79680000  0.29680000  0.93130000  1.0
  C  C17  1  0.29680000  0.93130000  0.79680000  1.0
  C  C18  1  0.70320000  0.93130000  0.20320000  1.0
  C  C19  1  0.70320000  0.06870000  0.79680000  1.0
  C  C20  1  0.29680000  0.06870000  0.20320000  1.0
  C  C21  1  0.93130000  0.20320000  0.70320000  1.0
  C  C22  1  0.93130000  0.79680000  0.29680000  1.0
  C  C23  1  0.06870000  0.20320000  0.29680000  1.0
  C  C24  1  0.06870000  0.79680000  0.70320000  1.0
  C  C25  1  0.70320000  0.79680000  0.06870000  1.0
  C  C26  1  0.29680000  0.20320000  0.06870000  1.0
  C  C27  1  0.29680000  0.79680000  0.93130000  1.0
  C  C28  1  0.70320000  0.20320000  0.93130000  1.0
  C  C29  1  0.06870000  0.70320000  0.79680000  1.0
  C  C30  1  0.06870000  0.29680000  0.20320000  1.0
  C  C31  1  0.93130000  0.29680000  0.79680000  1.0
  C  C32  1  0.93130000  0.70320000  0.20320000  1.0
  C  C33  1  0.79680000  0.06870000  0.70320000  1.0
  C  C34  1  0.20320000  0.06870000  0.29680000  1.0
  C  C35  1  0.79680000  0.93130000  0.29680000  1.0
  C  C36  1  0.20320000  0.93130000  0.70320000  1.0
  C  C37  1  0.79680000  0.70320000  0.93130000  1.0
  C  C38  1  0.20320000  0.29680000  0.93130000  1.0
  C  C39  1  0.79680000  0.29680000  0.06870000  1.0
  C  C40  1  0.20320000  0.70320000  0.06870000  1.0
  C  C41  1  0.70320000  0.06870000  0.20320000  1.0
  C  C42  1  0.29680000  0.06870000  0.79680000  1.0
  C  C43  1  0.29680000  0.93130000  0.20320000  1.0
  C  C44  1  0.70320000  0.93130000  0.79680000  1.0
  C  C45  1  0.06870000  0.79680000  0.29680000  1.0
  C  C46  1  0.06870000  0.20320000  0.70320000  1.0
  C  C47  1  0.93130000  0.79680000  0.70320000  1.0
  C  C48  1  0.93130000  0.20320000  0.29680000  1.0
  C  C49  1  0.29680000  0.70320000  0.43130000  1.0
  C  C50  1  0.70320000  0.29680000  0.43130000  1.0
  C  C51  1  0.70320000  0.70320000  0.56870000  1.0
  C  C52  1  0.29680000  0.29680000  0.56870000  1.0
  C  C53  1  0.20320000  0.43130000  0.79680000  1.0
  C  C54  1  0.79680000  0.43130000  0.20320000  1.0
  C  C55  1  0.20320000  0.56870000  0.20320000  1.0
  C  C56  1  0.79680000  0.56870000  0.79680000  1.0
  C  C57  1  0.20320000  0.79680000  0.56870000  1.0
  C  C58  1  0.79680000  0.20320000  0.56870000  1.0
  C  C59  1  0.20320000  0.20320000  0.43130000  1.0
  C  C60  1  0.79680000  0.79680000  0.43130000  1.0
  C  C61  1  0.29680000  0.43130000  0.29680000  1.0
  C  C62  1  0.70320000  0.43130000  0.70320000  1.0
  C  C63  1  0.70320000  0.56870000  0.29680000  1.0
  C  C64  1  0.29680000  0.56870000  0.70320000  1.0
  C  C65  1  0.70320000  0.29680000  0.56870000  1.0
  C  C66  1  0.29680000  0.70320000  0.56870000  1.0
  C  C67  1  0.29680000  0.29680000  0.43130000  1.0
  C  C68  1  0.70320000  0.70320000  0.43130000  1.0
  C  C69  1  0.79680000  0.56870000  0.20320000  1.0
  C  C70  1  0.20320000  0.56870000  0.79680000  1.0
  C  C71  1  0.79680000  0.43130000  0.79680000  1.0
  C  C72  1  0.20320000  0.43130000  0.20320000  1.0
  C  C73  1  0.79680000  0.20320000  0.43130000  1.0
  C  C74  1  0.20320000  0.79680000  0.43130000  1.0
  C  C75  1  0.79680000  0.79680000  0.56870000  1.0
  C  C76  1  0.20320000  0.20320000  0.56870000  1.0
  C  C77  1  0.70320000  0.56870000  0.70320000  1.0
  C  C78  1  0.29680000  0.56870000  0.29680000  1.0
  C  C79  1  0.29680000  0.43130000  0.70320000  1.0
  C  C80  1  0.70320000  0.43130000  0.29680000  1.0
  C  C81  1  0.43130000  0.29680000  0.70320000  1.0
  C  C82  1  0.43130000  0.70320000  0.29680000  1.0
  C  C83  1  0.56870000  0.70320000  0.70320000  1.0
  C  C84  1  0.56870000  0.29680000  0.29680000  1.0
  C  C85  1  0.43130000  0.20320000  0.20320000  1.0
  C  C86  1  0.43130000  0.79680000  0.79680000  1.0
  C  C87  1  0.56870000  0.20320000  0.79680000  1.0
  C  C88  1  0.56870000  0.79680000  0.20320000  1.0
  C  C89  1  0.56870000  0.70320000  0.29680000  1.0
  C  C90  1  0.56870000  0.29680000  0.70320000  1.0
  C  C91  1  0.43130000  0.29680000  0.29680000  1.0
  C  C92  1  0.43130000  0.70320000  0.70320000  1.0
  C  C93  1  0.56870000  0.79680000  0.79680000  1.0
  C  C94  1  0.56870000  0.20320000  0.20320000  1.0
  C  C95  1  0.43130000  0.79680000  0.20320000  1.0
  C  C96  1  0.43130000  0.20320000  0.79680000  1.0
  C  C97  1  0.32200000  0.17800000  0.88700000  1.0
  C  C98  1  0.67800000  0.82200000  0.88700000  1.0
  C  C99  1  0.67800000  0.17800000  0.11300000  1.0
  C  C100  1  0.32200000  0.82200000  0.11300000  1.0
  C  C101  1  0.88700000  0.32200000  0.17800000  1.0
  C  C102  1  0.88700000  0.67800000  0.82200000  1.0
  C  C103  1  0.11300000  0.67800000  0.17800000  1.0
  C  C104  1  0.11300000  0.32200000  0.82200000  1.0
  C  C105  1  0.17800000  0.88700000  0.32200000  1.0
  C  C106  1  0.82200000  0.88700000  0.67800000  1.0
  C  C107  1  0.17800000  0.11300000  0.67800000  1.0
  C  C108  1  0.82200000  0.11300000  0.32200000  1.0
  C  C109  1  0.17800000  0.32200000  0.11300000  1.0
  C  C110  1  0.82200000  0.67800000  0.11300000  1.0
  C  C111  1  0.17800000  0.67800000  0.88700000  1.0
  C  C112  1  0.82200000  0.32200000  0.88700000  1.0
  C  C113  1  0.32200000  0.88700000  0.82200000  1.0
  C  C114  1  0.67800000  0.88700000  0.17800000  1.0
  C  C115  1  0.67800000  0.11300000  0.82200000  1.0
  C  C116  1  0.32200000  0.11300000  0.17800000  1.0
  C  C117  1  0.88700000  0.17800000  0.67800000  1.0
  C  C118  1  0.88700000  0.82200000  0.32200000  1.0
  C  C119  1  0.11300000  0.17800000  0.32200000  1.0
  C  C120  1  0.11300000  0.82200000  0.67800000  1.0
  C  C121  1  0.67800000  0.82200000  0.11300000  1.0
  C  C122  1  0.32200000  0.17800000  0.11300000  1.0
  C  C123  1  0.32200000  0.82200000  0.88700000  1.0
  C  C124  1  0.67800000  0.17800000  0.88700000  1.0
  C  C125  1  0.11300000  0.67800000  0.82200000  1.0
  C  C126  1  0.11300000  0.32200000  0.17800000  1.0
  C  C127  1  0.88700000  0.32200000  0.82200000  1.0
  C  C128  1  0.88700000  0.67800000  0.17800000  1.0
  C  C129  1  0.82200000  0.11300000  0.67800000  1.0
  C  C130  1  0.17800000  0.11300000  0.32200000  1.0
  C  C131  1  0.82200000  0.88700000  0.32200000  1.0
  C  C132  1  0.17800000  0.88700000  0.67800000  1.0
  C  C133  1  0.82200000  0.67800000  0.88700000  1.0
  C  C134  1  0.17800000  0.32200000  0.88700000  1.0
  C  C135  1  0.82200000  0.32200000  0.11300000  1.0
  C  C136  1  0.17800000  0.67800000  0.11300000  1.0
  C  C137  1  0.67800000  0.11300000  0.17800000  1.0
  C  C138  1  0.32200000  0.11300000  0.82200000  1.0
  C  C139  1  0.32200000  0.88700000  0.17800000  1.0
  C  C140  1  0.67800000  0.88700000  0.82200000  1.0
  C  C141  1  0.11300000  0.82200000  0.32200000  1.0
  C  C142  1  0.11300000  0.17800000  0.67800000  1.0
  C  C143  1  0.88700000  0.82200000  0.67800000  1.0
  C  C144  1  0.88700000  0.17800000  0.32200000  1.0
  C  C145  1  0.32200000  0.67800000  0.38700000  1.0
  C  C146  1  0.67800000  0.32200000  0.38700000  1.0
  C  C147  1  0.67800000  0.67800000  0.61300000  1.0
  C  C148  1  0.32200000  0.32200000  0.61300000  1.0
  C  C149  1  0.17800000  0.38700000  0.82200000  1.0
  C  C150  1  0.82200000  0.38700000  0.17800000  1.0
  C  C151  1  0.17800000  0.61300000  0.17800000  1.0
  C  C152  1  0.82200000  0.61300000  0.82200000  1.0
  C  C153  1  0.17800000  0.82200000  0.61300000  1.0
  C  C154  1  0.82200000  0.17800000  0.61300000  1.0
  C  C155  1  0.17800000  0.17800000  0.38700000  1.0
  C  C156  1  0.82200000  0.82200000  0.38700000  1.0
  C  C157  1  0.32200000  0.38700000  0.32200000  1.0
  C  C158  1  0.67800000  0.38700000  0.67800000  1.0
  C  C159  1  0.67800000  0.61300000  0.32200000  1.0
  C  C160  1  0.32200000  0.61300000  0.67800000  1.0
  C  C161  1  0.67800000  0.32200000  0.61300000  1.0
  C  C162  1  0.32200000  0.67800000  0.61300000  1.0
  C  C163  1  0.32200000  0.32200000  0.38700000  1.0
  C  C164  1  0.67800000  0.67800000  0.38700000  1.0
  C  C165  1  0.82200000  0.61300000  0.17800000  1.0
  C  C166  1  0.17800000  0.61300000  0.82200000  1.0
  C  C167  1  0.82200000  0.38700000  0.82200000  1.0
  C  C168  1  0.17800000  0.38700000  0.17800000  1.0
  C  C169  1  0.82200000  0.17800000  0.38700000  1.0
  C  C170  1  0.17800000  0.82200000  0.38700000  1.0
  C  C171  1  0.82200000  0.82200000  0.61300000  1.0
  C  C172  1  0.17800000  0.17800000  0.61300000  1.0
  C  C173  1  0.67800000  0.61300000  0.67800000  1.0
  C  C174  1  0.32200000  0.61300000  0.32200000  1.0
  C  C175  1  0.32200000  0.38700000  0.67800000  1.0
  C  C176  1  0.67800000  0.38700000  0.32200000  1.0
  C  C177  1  0.38700000  0.32200000  0.67800000  1.0
  C  C178  1  0.38700000  0.67800000  0.32200000  1.0
  C  C179  1  0.61300000  0.67800000  0.67800000  1.0
  C  C180  1  0.61300000  0.32200000  0.32200000  1.0
  C  C181  1  0.38700000  0.17800000  0.17800000  1.0
  C  C182  1  0.38700000  0.82200000  0.82200000  1.0
  C  C183  1  0.61300000  0.17800000  0.82200000  1.0
  C  C184  1  0.61300000  0.82200000  0.17800000  1.0
  C  C185  1  0.61300000  0.67800000  0.32200000  1.0
  C  C186  1  0.61300000  0.32200000  0.67800000  1.0
  C  C187  1  0.38700000  0.32200000  0.32200000  1.0
  C  C188  1  0.38700000  0.67800000  0.67800000  1.0
  C  C189  1  0.61300000  0.82200000  0.82200000  1.0
  C  C190  1  0.61300000  0.17800000  0.17800000  1.0
  C  C191  1  0.38700000  0.82200000  0.17800000  1.0
  C  C192  1  0.38700000  0.17800000  0.82200000  1.0
  C  C193  1  0.36550000  0.19940000  0.86550000  1.0
  C  C194  1  0.63450000  0.80060000  0.86550000  1.0
  C  C195  1  0.63450000  0.19940000  0.13450000  1.0
  C  C196  1  0.36550000  0.80060000  0.13450000  1.0
  C  C197  1  0.86550000  0.36550000  0.19940000  1.0
  C  C198  1  0.86550000  0.63450000  0.80060000  1.0
  C  C199  1  0.13450000  0.63450000  0.19940000  1.0
  C  C200  1  0.13450000  0.36550000  0.80060000  1.0
  C  C201  1  0.19940000  0.86550000  0.36550000  1.0
  C  C202  1  0.80060000  0.86550000  0.63450000  1.0
  C  C203  1  0.19940000  0.13450000  0.63450000  1.0
  C  C204  1  0.80060000  0.13450000  0.36550000  1.0
  C  C205  1  0.19940000  0.36550000  0.13450000  1.0
  C  C206  1  0.80060000  0.63450000  0.13450000  1.0
  C  C207  1  0.19940000  0.63450000  0.86550000  1.0
  C  C208  1  0.80060000  0.36550000  0.86550000  1.0
  C  C209  1  0.36550000  0.86550000  0.80060000  1.0
  C  C210  1  0.63450000  0.86550000  0.19940000  1.0
  C  C211  1  0.63450000  0.13450000  0.80060000  1.0
  C  C212  1  0.36550000  0.13450000  0.19940000  1.0
  C  C213  1  0.86550000  0.19940000  0.63450000  1.0
  C  C214  1  0.86550000  0.80060000  0.36550000  1.0
  C  C215  1  0.13450000  0.19940000  0.36550000  1.0
  C  C216  1  0.13450000  0.80060000  0.63450000  1.0
  C  C217  1  0.63450000  0.80060000  0.13450000  1.0
  C  C218  1  0.36550000  0.19940000  0.13450000  1.0
  C  C219  1  0.36550000  0.80060000  0.86550000  1.0
  C  C220  1  0.63450000  0.19940000  0.86550000  1.0
  C  C221  1  0.13450000  0.63450000  0.80060000  1.0
  C  C222  1  0.13450000  0.36550000  0.19940000  1.0
  C  C223  1  0.86550000  0.36550000  0.80060000  1.0
  C  C224  1  0.86550000  0.63450000  0.19940000  1.0
  C  C225  1  0.80060000  0.13450000  0.63450000  1.0
  C  C226  1  0.19940000  0.13450000  0.36550000  1.0
  C  C227  1  0.80060000  0.86550000  0.36550000  1.0
  C  C228  1  0.19940000  0.86550000  0.63450000  1.0
  C  C229  1  0.80060000  0.63450000  0.86550000  1.0
  C  C230  1  0.19940000  0.36550000  0.86550000  1.0
  C  C231  1  0.80060000  0.36550000  0.13450000  1.0
  C  C232  1  0.19940000  0.63450000  0.13450000  1.0
  C  C233  1  0.63450000  0.13450000  0.19940000  1.0
  C  C234  1  0.36550000  0.13450000  0.80060000  1.0
  C  C235  1  0.36550000  0.86550000  0.19940000  1.0
  C  C236  1  0.63450000  0.86550000  0.80060000  1.0
  C  C237  1  0.13450000  0.80060000  0.36550000  1.0
  C  C238  1  0.13450000  0.19940000  0.63450000  1.0
  C  C239  1  0.86550000  0.80060000  0.63450000  1.0
  C  C240  1  0.86550000  0.19940000  0.36550000  1.0
  C  C241  1  0.36550000  0.69940000  0.36550000  1.0
  C  C242  1  0.63450000  0.30060000  0.36550000  1.0
  C  C243  1  0.63450000  0.69940000  0.63450000  1.0
  C  C244  1  0.36550000  0.30060000  0.63450000  1.0
  C  C245  1  0.86550000  0.86550000  0.69940000  1.0
  C  C246  1  0.86550000  0.13450000  0.30060000  1.0
  C  C247  1  0.13450000  0.13450000  0.69940000  1.0
  C  C248  1  0.13450000  0.86550000  0.30060000  1.0
  C  C249  1  0.36550000  0.36550000  0.30060000  1.0
  C  C250  1  0.63450000  0.36550000  0.69940000  1.0
  C  C251  1  0.63450000  0.63450000  0.30060000  1.0
  C  C252  1  0.36550000  0.63450000  0.69940000  1.0
  C  C253  1  0.86550000  0.69940000  0.13450000  1.0
  C  C254  1  0.86550000  0.30060000  0.86550000  1.0
  C  C255  1  0.13450000  0.69940000  0.86550000  1.0
  C  C256  1  0.13450000  0.30060000  0.13450000  1.0
  C  C257  1  0.63450000  0.30060000  0.63450000  1.0
  C  C258  1  0.36550000  0.69940000  0.63450000  1.0
  C  C259  1  0.36550000  0.30060000  0.36550000  1.0
  C  C260  1  0.63450000  0.69940000  0.36550000  1.0
  C  C261  1  0.13450000  0.13450000  0.30060000  1.0
  C  C262  1  0.13450000  0.86550000  0.69940000  1.0
  C  C263  1  0.86550000  0.86550000  0.30060000  1.0
  C  C264  1  0.86550000  0.13450000  0.69940000  1.0
  C  C265  1  0.63450000  0.63450000  0.69940000  1.0
  C  C266  1  0.36550000  0.63450000  0.30060000  1.0
  C  C267  1  0.36550000  0.36550000  0.69940000  1.0
  C  C268  1  0.63450000  0.36550000  0.30060000  1.0
  C  C269  1  0.13450000  0.30060000  0.86550000  1.0
  C  C270  1  0.13450000  0.69940000  0.13450000  1.0
  C  C271  1  0.86550000  0.30060000  0.13450000  1.0
  C  C272  1  0.86550000  0.69940000  0.86550000  1.0
  C  C273  1  0.69940000  0.86550000  0.86550000  1.0
  C  C274  1  0.30060000  0.86550000  0.13450000  1.0
  C  C275  1  0.69940000  0.13450000  0.13450000  1.0
  C  C276  1  0.30060000  0.13450000  0.86550000  1.0
  C  C277  1  0.69940000  0.36550000  0.63450000  1.0
  C  C278  1  0.30060000  0.63450000  0.63450000  1.0
  C  C279  1  0.69940000  0.63450000  0.36550000  1.0
  C  C280  1  0.30060000  0.36550000  0.36550000  1.0
  C  C281  1  0.30060000  0.13450000  0.13450000  1.0
  C  C282  1  0.69940000  0.13450000  0.86550000  1.0
  C  C283  1  0.30060000  0.86550000  0.86550000  1.0
  C  C284  1  0.69940000  0.86550000  0.13450000  1.0
  C  C285  1  0.30060000  0.63450000  0.36550000  1.0
  C  C286  1  0.69940000  0.36550000  0.36550000  1.0
  C  C287  1  0.30060000  0.36550000  0.63450000  1.0
  C  C288  1  0.69940000  0.63450000  0.63450000  1.0
  O  O1  1  0.31660000  0.24310000  0.94780000  1.0
  O  O2  1  0.68340000  0.75690000  0.94780000  1.0
  O  O3  1  0.68340000  0.24310000  0.05220000  1.0
  O  O4  1  0.31660000  0.75690000  0.05220000  1.0
  O  O5  1  0.94780000  0.31660000  0.24310000  1.0
  O  O6  1  0.94780000  0.68340000  0.75690000  1.0
  O  O7  1  0.05220000  0.68340000  0.24310000  1.0
  O  O8  1  0.05220000  0.31660000  0.75690000  1.0
  O  O9  1  0.24310000  0.94780000  0.31660000  1.0
  O  O10  1  0.75690000  0.94780000  0.68340000  1.0
  O  O11  1  0.24310000  0.05220000  0.68340000  1.0
  O  O12  1  0.75690000  0.05220000  0.31660000  1.0
  O  O13  1  0.24310000  0.31660000  0.05220000  1.0
  O  O14  1  0.75690000  0.68340000  0.05220000  1.0
  O  O15  1  0.24310000  0.68340000  0.94780000  1.0
  O  O16  1  0.75690000  0.31660000  0.94780000  1.0
  O  O17  1  0.31660000  0.94780000  0.75690000  1.0
  O  O18  1  0.68340000  0.94780000  0.24310000  1.0
  O  O19  1  0.68340000  0.05220000  0.75690000  1.0
  O  O20  1  0.31660000  0.05220000  0.24310000  1.0
  O  O21  1  0.94780000  0.24310000  0.68340000  1.0
  O  O22  1  0.94780000  0.75690000  0.31660000  1.0
  O  O23  1  0.05220000  0.24310000  0.31660000  1.0
  O  O24  1  0.05220000  0.75690000  0.68340000  1.0
  O  O25  1  0.68340000  0.75690000  0.05220000  1.0
  O  O26  1  0.31660000  0.24310000  0.05220000  1.0
  O  O27  1  0.31660000  0.75690000  0.94780000  1.0
  O  O28  1  0.68340000  0.24310000  0.94780000  1.0
  O  O29  1  0.05220000  0.68340000  0.75690000  1.0
  O  O30  1  0.05220000  0.31660000  0.24310000  1.0
  O  O31  1  0.94780000  0.31660000  0.75690000  1.0
  O  O32  1  0.94780000  0.68340000  0.24310000  1.0
  O  O33  1  0.75690000  0.05220000  0.68340000  1.0
  O  O34  1  0.24310000  0.05220000  0.31660000  1.0
  O  O35  1  0.75690000  0.94780000  0.31660000  1.0
  O  O36  1  0.24310000  0.94780000  0.68340000  1.0
  O  O37  1  0.75690000  0.68340000  0.94780000  1.0
  O  O38  1  0.24310000  0.31660000  0.94780000  1.0
  O  O39  1  0.75690000  0.31660000  0.05220000  1.0
  O  O40  1  0.24310000  0.68340000  0.05220000  1.0
  O  O41  1  0.68340000  0.05220000  0.24310000  1.0
  O  O42  1  0.31660000  0.05220000  0.75690000  1.0
  O  O43  1  0.31660000  0.94780000  0.24310000  1.0
  O  O44  1  0.68340000  0.94780000  0.75690000  1.0
  O  O45  1  0.05220000  0.75690000  0.31660000  1.0
  O  O46  1  0.05220000  0.24310000  0.68340000  1.0
  O  O47  1  0.94780000  0.75690000  0.68340000  1.0
  O  O48  1  0.94780000  0.24310000  0.31660000  1.0
  O  O49  1  0.31660000  0.74310000  0.44780000  1.0
  O  O50  1  0.68340000  0.25690000  0.44780000  1.0
  O  O51  1  0.68340000  0.74310000  0.55220000  1.0
  O  O52  1  0.31660000  0.25690000  0.55220000  1.0
  O  O53  1  0.94780000  0.81660000  0.74310000  1.0
  O  O54  1  0.94780000  0.18340000  0.25690000  1.0
  O  O55  1  0.05220000  0.18340000  0.74310000  1.0
  O  O56  1  0.05220000  0.81660000  0.25690000  1.0
  O  O57  1  0.24310000  0.44780000  0.81660000  1.0
  O  O58  1  0.75690000  0.44780000  0.18340000  1.0
  O  O59  1  0.24310000  0.55220000  0.18340000  1.0
  O  O60  1  0.75690000  0.55220000  0.81660000  1.0
  O  O61  1  0.24310000  0.81660000  0.55220000  1.0
  O  O62  1  0.75690000  0.18340000  0.55220000  1.0
  O  O63  1  0.24310000  0.18340000  0.44780000  1.0
  O  O64  1  0.75690000  0.81660000  0.44780000  1.0
  O  O65  1  0.31660000  0.44780000  0.25690000  1.0
  O  O66  1  0.68340000  0.44780000  0.74310000  1.0
  O  O67  1  0.68340000  0.55220000  0.25690000  1.0
  O  O68  1  0.31660000  0.55220000  0.74310000  1.0
  O  O69  1  0.94780000  0.74310000  0.18340000  1.0
  O  O70  1  0.94780000  0.25690000  0.81660000  1.0
  O  O71  1  0.05220000  0.74310000  0.81660000  1.0
  O  O72  1  0.05220000  0.25690000  0.18340000  1.0
  O  O73  1  0.68340000  0.25690000  0.55220000  1.0
  O  O74  1  0.31660000  0.74310000  0.55220000  1.0
  O  O75  1  0.31660000  0.25690000  0.44780000  1.0
  O  O76  1  0.68340000  0.74310000  0.44780000  1.0
  O  O77  1  0.05220000  0.18340000  0.25690000  1.0
  O  O78  1  0.05220000  0.81660000  0.74310000  1.0
  O  O79  1  0.94780000  0.81660000  0.25690000  1.0
  O  O80  1  0.94780000  0.18340000  0.74310000  1.0
  O  O81  1  0.75690000  0.55220000  0.18340000  1.0
  O  O82  1  0.24310000  0.55220000  0.81660000  1.0
  O  O83  1  0.75690000  0.44780000  0.81660000  1.0
  O  O84  1  0.24310000  0.44780000  0.18340000  1.0
  O  O85  1  0.75690000  0.18340000  0.44780000  1.0
  O  O86  1  0.24310000  0.81660000  0.44780000  1.0
  O  O87  1  0.75690000  0.81660000  0.55220000  1.0
  O  O88  1  0.24310000  0.18340000  0.55220000  1.0
  O  O89  1  0.68340000  0.55220000  0.74310000  1.0
  O  O90  1  0.31660000  0.55220000  0.25690000  1.0
  O  O91  1  0.31660000  0.44780000  0.74310000  1.0
  O  O92  1  0.68340000  0.44780000  0.25690000  1.0
  O  O93  1  0.05220000  0.25690000  0.81660000  1.0
  O  O94  1  0.05220000  0.74310000  0.18340000  1.0
  O  O95  1  0.94780000  0.25690000  0.18340000  1.0
  O  O96  1  0.94780000  0.74310000  0.81660000  1.0
  O  O97  1  0.81660000  0.24310000  0.44780000  1.0
  O  O98  1  0.18340000  0.75690000  0.44780000  1.0
  O  O99  1  0.18340000  0.24310000  0.55220000  1.0
  O  O100  1  0.81660000  0.75690000  0.55220000  1.0
  O  O101  1  0.44780000  0.31660000  0.74310000  1.0
  O  O102  1  0.44780000  0.68340000  0.25690000  1.0
  O  O103  1  0.55220000  0.68340000  0.74310000  1.0
  O  O104  1  0.55220000  0.31660000  0.25690000  1.0
  O  O105  1  0.74310000  0.94780000  0.81660000  1.0
  O  O106  1  0.25690000  0.94780000  0.18340000  1.0
  O  O107  1  0.74310000  0.05220000  0.18340000  1.0
  O  O108  1  0.25690000  0.05220000  0.81660000  1.0
  O  O109  1  0.74310000  0.31660000  0.55220000  1.0
  O  O110  1  0.25690000  0.68340000  0.55220000  1.0
  O  O111  1  0.74310000  0.68340000  0.44780000  1.0
  O  O112  1  0.25690000  0.31660000  0.44780000  1.0
  O  O113  1  0.81660000  0.94780000  0.25690000  1.0
  O  O114  1  0.18340000  0.94780000  0.74310000  1.0
  O  O115  1  0.18340000  0.05220000  0.25690000  1.0
  O  O116  1  0.81660000  0.05220000  0.74310000  1.0
  O  O117  1  0.44780000  0.24310000  0.18340000  1.0
  O  O118  1  0.44780000  0.75690000  0.81660000  1.0
  O  O119  1  0.55220000  0.24310000  0.81660000  1.0
  O  O120  1  0.55220000  0.75690000  0.18340000  1.0
  O  O121  1  0.18340000  0.75690000  0.55220000  1.0
  O  O122  1  0.81660000  0.24310000  0.55220000  1.0
  O  O123  1  0.81660000  0.75690000  0.44780000  1.0
  O  O124  1  0.18340000  0.24310000  0.44780000  1.0
  O  O125  1  0.55220000  0.68340000  0.25690000  1.0
  O  O126  1  0.55220000  0.31660000  0.74310000  1.0
  O  O127  1  0.44780000  0.31660000  0.25690000  1.0
  O  O128  1  0.44780000  0.68340000  0.74310000  1.0
  O  O129  1  0.25690000  0.05220000  0.18340000  1.0
  O  O130  1  0.74310000  0.05220000  0.81660000  1.0
  O  O131  1  0.25690000  0.94780000  0.81660000  1.0
  O  O132  1  0.74310000  0.94780000  0.18340000  1.0
  O  O133  1  0.25690000  0.68340000  0.44780000  1.0
  O  O134  1  0.74310000  0.31660000  0.44780000  1.0
  O  O135  1  0.25690000  0.31660000  0.55220000  1.0
  O  O136  1  0.74310000  0.68340000  0.55220000  1.0
  O  O137  1  0.18340000  0.05220000  0.74310000  1.0
  O  O138  1  0.81660000  0.05220000  0.25690000  1.0
  O  O139  1  0.81660000  0.94780000  0.74310000  1.0
  O  O140  1  0.18340000  0.94780000  0.25690000  1.0
  O  O141  1  0.55220000  0.75690000  0.81660000  1.0
  O  O142  1  0.55220000  0.24310000  0.18340000  1.0
  O  O143  1  0.44780000  0.75690000  0.18340000  1.0
  O  O144  1  0.44780000  0.24310000  0.81660000  1.0
  O  O145  1  0.81660000  0.74310000  0.94780000  1.0
  O  O146  1  0.18340000  0.25690000  0.94780000  1.0
  O  O147  1  0.18340000  0.74310000  0.05220000  1.0
  O  O148  1  0.81660000  0.25690000  0.05220000  1.0
  O  O149  1  0.44780000  0.81660000  0.24310000  1.0
  O  O150  1  0.44780000  0.18340000  0.75690000  1.0
  O  O151  1  0.55220000  0.18340000  0.24310000  1.0
  O  O152  1  0.55220000  0.81660000  0.75690000  1.0
  O  O153  1  0.74310000  0.44780000  0.31660000  1.0
  O  O154  1  0.25690000  0.44780000  0.68340000  1.0
  O  O155  1  0.74310000  0.55220000  0.68340000  1.0
  O  O156  1  0.25690000  0.55220000  0.31660000  1.0
  O  O157  1  0.74310000  0.81660000  0.05220000  1.0
  O  O158  1  0.25690000  0.18340000  0.05220000  1.0
  O  O159  1  0.74310000  0.18340000  0.94780000  1.0
  O  O160  1  0.25690000  0.81660000  0.94780000  1.0
  O  O161  1  0.81660000  0.44780000  0.75690000  1.0
  O  O162  1  0.18340000  0.44780000  0.24310000  1.0
  O  O163  1  0.18340000  0.55220000  0.75690000  1.0
  O  O164  1  0.81660000  0.55220000  0.24310000  1.0
  O  O165  1  0.44780000  0.74310000  0.68340000  1.0
  O  O166  1  0.44780000  0.25690000  0.31660000  1.0
  O  O167  1  0.55220000  0.74310000  0.31660000  1.0
  O  O168  1  0.55220000  0.25690000  0.68340000  1.0
  O  O169  1  0.18340000  0.25690000  0.05220000  1.0
  O  O170  1  0.81660000  0.74310000  0.05220000  1.0
  O  O171  1  0.81660000  0.25690000  0.94780000  1.0
  O  O172  1  0.18340000  0.74310000  0.94780000  1.0
  O  O173  1  0.55220000  0.18340000  0.75690000  1.0
  O  O174  1  0.55220000  0.81660000  0.24310000  1.0
  O  O175  1  0.44780000  0.81660000  0.75690000  1.0
  O  O176  1  0.44780000  0.18340000  0.24310000  1.0
  O  O177  1  0.25690000  0.55220000  0.68340000  1.0
  O  O178  1  0.74310000  0.55220000  0.31660000  1.0
  O  O179  1  0.25690000  0.44780000  0.31660000  1.0
  O  O180  1  0.74310000  0.44780000  0.68340000  1.0
  O  O181  1  0.25690000  0.18340000  0.94780000  1.0
  O  O182  1  0.74310000  0.81660000  0.94780000  1.0
  O  O183  1  0.25690000  0.81660000  0.05220000  1.0
  O  O184  1  0.74310000  0.18340000  0.05220000  1.0
  O  O185  1  0.18340000  0.55220000  0.24310000  1.0
  O  O186  1  0.81660000  0.55220000  0.75690000  1.0
  O  O187  1  0.81660000  0.44780000  0.24310000  1.0
  O  O188  1  0.18340000  0.44780000  0.75690000  1.0
  O  O189  1  0.55220000  0.25690000  0.31660000  1.0
  O  O190  1  0.55220000  0.74310000  0.68340000  1.0
  O  O191  1  0.44780000  0.25690000  0.68340000  1.0
  O  O192  1  0.44780000  0.74310000  0.31660000  1.0
